0,   100.00,  32, 0, 1, 60.00     / PSS(R)E 32 RAW created by rawd32  WED, AUG 31 2016  13:53
                               100.0

     1,'CORONADO    ', 500.0000,1,  10,  10,   1,0.99361, -20.4625
     2,'CHOLLA      ', 345.0000,1,  10,  10,   1,1.02903, -11.8395
     3,'CORONADO    ',  20.0000,2,  10,  10,   1,1.01148, -13.8582
     4,'CRAIG       ', 345.0000,1,  60,  70,   1,1.01368,  12.3863
     5,'CRAIG       ',  20.0000,2,  60,  70,   1,1.01712,  18.9225
     6,'FOURCORN    ', 500.0000,1,  10,  10,   1,1.12547,  -9.2764
     7,'FOURCORN    ', 345.0000,1,  10,  10,   1,1.04845,  -6.3149
     8,'FCNGN4CC    ',  20.0000,2,  10,  10,   1,1.01935,   0.2151
     9,'FOURCORN    ', 230.0000,1,  10,  10,   1,1.04664,  -6.8182
    10,'HAYDEN      ',  20.0000,2,  10,  10,   1,1.00000,  29.1577
    11,'NAVAJO      ', 500.0000,1,  10,  10,   1,1.15161, -21.6894
    12,'NAVAJO 2    ',  20.0000,2,  10,  10,   1,1.08081, -16.4174
    13,'MOENKOPI    ', 500.0000,1,  10,  10,   1,1.15234, -22.4750
    14,'PALOVRD2    ',  20.0000,2,  10,  10,   1,1.03911, -20.1929
    15,'PALOVRDE    ', 500.0000,1,  10,  10,   1,1.12950, -26.9817
    16,'SAN JUAN    ', 345.0000,1,  10,  10,   1,1.06265,  -5.4567
    17,'SJUAN G4    ',  20.0000,2,  10,  10,   1,1.01000,  -2.5744
    18,'WESTWING    ', 500.0000,1,  10,  10,   1,1.13748, -26.8488
    19,'NAVAJO1     ', 500.0000,1,  10,  10,   1,1.14341, -20.7940
    20,'NAVAJO2     ', 500.0000,1,  10,  10,   1,1.15090, -23.3623
    21,'NAVAJO3     ', 500.0000,1,  10,  10,   1,1.12344, -20.0299
    22,'NAVAJO4     ', 500.0000,1,  10,  10,   1,1.10525, -28.5461
    23,'MOENKOPI    ', 500.0000,1,  10,  10,   1,1.14048, -21.1231
    24,'MOENKOP2    ', 500.0000,1,  10,  10,   1,1.12042, -28.2355
    25,'MOENKOP3    ', 500.0000,1,  10,  10,   1,1.14954, -14.8778
    26,'MOENKOP4    ', 500.0000,1,  10,  10,   1,1.02866, -38.5471
    27,'FOURCOR1    ', 500.0000,1,  10,  10,   1,1.11272,  -7.3248
    28,'FOURCOR2    ', 500.0000,1,  10,  10,   1,1.13373, -27.4904
    29,'CANAD G1    ',  20.0000,2,  50,  50,   1,1.05527,  17.9613
    30,'CANADA      ', 500.0000,1,  50,  50,   1,1.09433,  14.5601
    31,'CANALB      ', 500.0000,1,  50,  50,   1,1.03936,  42.6217
    32,'CA230TO     ', 230.0000,1,  50,  50,   1,0.99847,  47.2905
    33,'CA230       ', 230.0000,1,  50,  50,   1,1.00373,  56.2347
    34,'CMAIN GM    ',  20.0000,2,  50,  50,   1,1.02000,  61.1431
    35,'BRIDGER2    ',  22.0000,2,  60,  63,   1,1.06125,   0.0035
    36,'ADELANTO    ', 500.0000,1,  90,  90,   1,1.07297, -38.2433
    37,'ADELAN&1    ', 500.0000,1,  90,  90,   1,1.09333, -42.2237
    38,'CASTAIC     ', 230.0000,1,  26,  26,   1,1.04123, -43.2566
    39,'CASTAI4G    ',  20.0000,2,  26,  26,   1,1.02393, -41.9572
    40,'GLENDAL     ', 230.0000,1,  26,  26,   1,1.04269, -46.8321
    41,'HAYNES      ', 230.0000,1,  26,  26,   1,1.04467, -46.5440
    42,'HAYNES3G    ',  20.0000,2,  26,  26,   1,1.00496, -43.2890
    43,'INTERMT     ', 345.0000,1,  90,  90,   1,1.06442,  -6.2384
    44,'INTERM1G    ',  20.0000,2,  90,  90,   1,1.06068,  -1.6893
    45,'OLIVE       ', 230.0000,1,  26,  26,   1,1.04611, -43.5962
    46,'OWENS G     ',  20.0000,2,  26,  26,   1,1.01546, -43.1962
    47,'RINALDI     ', 230.0000,1,  26,  26,   1,1.04566, -43.8023
    48,'RINALDI     ', 500.0000,1,  26,  26,   1,1.08445, -41.4949
    49,'RIVER       ', 230.0000,1,  26,  26,   1,1.03943, -47.7104
    50,'STA B       ', 138.0000,1,  26,  26,   1,1.04793, -47.7597
    51,'STA B1      ', 287.0000,1,  26,  26,   1,1.05183, -46.6075
    52,'STA B2      ', 287.0000,1,  26,  26,   1,1.05183, -46.6075
    53,'STA BLD     ', 230.0000,1,  26,  26,   1,1.04287, -47.9642
    54,'STA E       ', 230.0000,1,  26,  26,   1,1.04048, -45.9797
    55,'STA E       ', 500.0000,1,  26,  26,   1,1.05779, -43.6422
    56,'STA F       ', 230.0000,1,  26,  26,   1,1.04058, -47.7435
    57,'STA G       ', 230.0000,1,  26,  26,   1,1.04059, -47.0665
    58,'STA J       ', 230.0000,1,  26,  26,   1,1.04267, -44.8525
    59,'SYLMARLA    ', 230.0000,1,  90,  90,   1,1.04935, -43.1285
    60,'SYLMAR S    ', 230.0000,1,  24,  24,   1,1.03068, -44.2159
    61,'VALLEY      ', 230.0000,1,  26,  26,   1,1.04229, -44.9712
    62,'VICTORVL    ', 287.0000,1,  26,  26,   1,1.06562, -40.5291
    63,'VICTORVL    ', 500.0000,1,  26,  26,   1,1.07102, -38.5541
    64,'MONTA G1    ',  20.0000,2,  60,  62,   1,1.08000,  43.0319
    65,'MONTANA     ', 500.0000,1,  60,  62,   1,1.13557,  35.8586
    66,'BIG EDDY    ', 115.0000,1,  40,  40,   1,1.04177, -17.5529
    67,'BIG EDDY    ', 230.0000,1,  40,  40,   1,1.03973, -15.0682
    68,'BIG EDDY    ', 500.0000,1,  40,  40,   1,1.08364, -13.7847
    69,'DALLES21    ',  20.0000,2,  40,  40,   1,1.03000,  -8.1048
    70,'CELILO      ', 230.0000,1,  90,  90,   1,1.03577, -15.6015
    71,'CELILOCA    ', 500.0000,1,  40,  40,   1,1.08226, -13.8908
    72,'COLSTRP     ', 500.0000,1,  60,  62,   1,1.10766,   4.0677
    73,'COULEE      ', 500.0000,1,  40,  41,   1,1.11555,  -3.2939
    74,'GARRISON    ', 500.0000,1,  60,  62,   1,1.09515, -17.1706
    75,'JOHN DAY    ', 500.0000,1,  40,  40,   1,1.11457, -11.7413
    76,'JOHN DAY    ',  20.0000,3,  40,  40,   1,1.04512,   0.0000
    77,'HANFORD     ', 500.0000,1,  40,  41,   1,1.14030,  -3.3619
    78,'NORTH G3    ',  20.0000,2,  40,  42,   1,1.06470,  19.3254
    79,'NORTH       ', 500.0000,1,  40,  42,   1,1.11464,   6.6650
    80,'BURNS       ', 500.0000,1,  40,  40,   1,1.11137, -19.8314
    81,'GRIZZLY     ', 500.0000,1,  40,  40,   1,1.12109, -17.5527
    82,'MALIN       ', 500.0000,1,  40,  40,   1,1.12407, -23.3429
    83,'MIDPOINT    ', 500.0000,1,  61,  61,   1,1.12132,  -6.8974
    84,'MIDPOINT    ', 345.0000,1,  61,  61,   1,1.05300,  -3.6310
    85,'SUMMER L    ', 500.0000,1,  40,  40,   1,1.11895, -18.6566
    86,'GRIZZLY1    ', 500.0000,1,  40,  40,   1,1.12950, -19.0964
    87,'GRIZZLY2    ', 500.0000,1,  40,  40,   1,1.11790, -16.4940
    88,'MALIN1      ', 500.0000,1,  40,  40,   1,1.10339, -14.8946
    89,'MALIN2      ', 500.0000,1,  40,  40,   1,1.12464, -20.0970
    90,'GRIZZLY3    ', 500.0000,1,  40,  40,   1,1.14661, -21.8683
    91,'GRIZZLY4    ', 500.0000,1,  40,  40,   1,1.12366, -17.6606
    92,'GRIZZLY5    ', 500.0000,1,  40,  40,   1,1.13655, -22.4975
    93,'GRIZZLY6    ', 500.0000,1,  40,  40,   1,1.12813, -18.2883
    94,'GRIZZLY7    ', 500.0000,1,  40,  40,   1,1.14647, -22.1043
    95,'GRIZZLY8    ', 500.0000,1,  40,  40,   1,1.12341, -17.6620
    96,'GRIZZLY9    ', 500.0000,1,  40,  40,   1,1.13621, -22.7670
    97,'GRIZZLYA    ', 500.0000,1,  40,  40,   1,1.12758, -18.3221
    98,'BURNS1      ', 500.0000,1,  40,  40,   1,1.01905,   5.0903
    99,'CORTINA     ', 230.0000,1,  39,  39,   1,1.03177, -32.2551
   100,'COTWDPGE    ', 230.0000,1,  39,  39,   1,1.12739, -29.0945
   101,'DIABLO      ', 500.0000,1,  38,  38,   1,1.09283, -42.3512
   102,'DIABLO1     ',  20.0000,2,  38,  38,   1,1.05077, -38.9349
   103,'GATES       ', 500.0000,1,  38,  38,   1,1.07607, -43.8010
   104,'GLENN       ', 230.0000,1,  39,  39,   1,1.02175, -31.8009
   105,'LOGAN CR    ', 230.0000,1,  39,  39,   1,1.11621, -32.7429
   106,'LOSBANOS    ', 500.0000,1,  39,  39,   1,1.06808, -45.5650
   107,'MIDWAY      ', 500.0000,1,  38,  38,   1,1.07043, -44.6435
   108,'MIDWAY      ', 230.0000,1,  38,  38,   1,1.13261, -47.4997
   109,'MOSSLAND    ', 500.0000,1,  39,  39,   1,1.06526, -45.8205
   110,'OLINDA      ', 500.0000,1,  80,  80,   1,1.10947, -30.3142
   111,'ROUND MT    ',  20.0000,2,  39,  39,   1,1.07075, -15.3221
   112,'ROUND MT    ', 230.0000,1,  39,  39,   1,1.15677, -24.6267
   113,'ROUND MT    ', 500.0000,1,  39,  39,   1,1.08067, -27.6153
   114,'TABLE MT    ', 500.0000,1,  39,  39,   1,1.06166, -29.5752
   115,'TEVATR      ',  20.0000,2,  39,  39,   1,1.01200, -33.0311
   116,'TEVATR      ', 200.0000,1,  39,  39,   1,1.08072, -37.3053
   117,'TEVATR2     ',  20.0000,2,  39,  39,   1,1.01200, -28.1710
   118,'TEVATR      ', 500.0000,1,  39,  39,   1,0.99117, -36.3427
   119,'OLINDA1     ', 500.0000,1,  80,  80,   1,1.12426, -24.5436
   120,'OLINDA2     ', 500.0000,1,  80,  80,   1,1.07766, -36.0745
   121,'OLINDA3     ', 500.0000,1,  80,  80,   1,1.10132, -30.0581
   122,'OLINDA4     ', 500.0000,1,  80,  80,   1,1.03251, -43.2498
   123,'ROUND1      ', 500.0000,1,  39,  39,   1,1.08706, -24.7148
   124,'ROUND2      ', 500.0000,1,  39,  39,   1,1.04974, -31.5998
   125,'ROUND3      ', 500.0000,1,  39,  39,   1,1.08706, -24.7148
   126,'ROUND4      ', 500.0000,1,  39,  39,   1,1.04974, -31.5998
   127,'TABLE1      ', 500.0000,1,  39,  39,   1,1.07966, -23.3489
   128,'TABLE2      ', 500.0000,1,  39,  39,   1,1.00804, -43.3704
   129,'TABLE3      ', 500.0000,1,  39,  39,   1,1.09103, -25.0381
   130,'TABLE4      ', 500.0000,1,  39,  39,   1,0.99710, -38.9645
   131,'TEVATR1     ', 500.0000,1,  39,  39,   1,1.01443, -34.5191
   132,'TEVATR2     ', 500.0000,1,  39,  39,   1,1.07257, -47.4369
   133,'TEVATR3     ', 500.0000,1,  39,  39,   1,1.10181, -32.7111
   134,'GATES1      ', 500.0000,1,  38,  38,   1,1.04998, -46.1583
   135,'DEVERS      ', 500.0000,1,  24,  24,   1,1.08550, -39.4211
   136,'EAGLROCK    ', 230.0000,1,  24,  24,   1,1.01363, -48.6590
   137,'ELDORADO    ',  20.0000,2,  24,  29,   1,1.02000, -22.7136
   138,'ELDORADO    ', 500.0000,1,  24,  29,   1,1.07993, -29.6448
   139,'LITEHIPE    ',  20.0000,2,  24,  24,   1,1.00900, -45.3691
   140,'LITEHIPE    ', 230.0000,1,  24,  24,   1,1.00194, -51.6477
   141,'LUGO        ', 500.0000,1,  24,  24,   1,1.05985, -42.0654
   142,'MESA CAL    ', 230.0000,1,  24,  24,   1,1.00314, -50.9531
   143,'MIRALOMA    ',  20.0000,2,  24,  24,   1,1.00900, -41.1226
   144,'MIRALOMA    ', 500.0000,1,  24,  24,   1,1.03185, -45.5713
   145,'MIRALOMA    ', 230.0000,1,  24,  24,   1,1.02962, -46.0187
   146,'MOHAVE      ', 500.0000,1,  24,  29,   1,1.08169, -25.8948
   147,'MOHAV1CC    ',  22.0000,2,  24,  24,   1,1.05000, -17.6648
   148,'PARDEE      ',  20.0000,2,  24,  24,   1,1.01000, -35.5848
   149,'PARDEE      ', 230.0000,1,  24,  24,   1,1.01244, -47.5893
   150,'SERRANO     ', 500.0000,1,  25,  25,   1,1.04459, -45.9262
   151,'VALLEY      ', 500.0000,1,  24,  24,   1,1.06411, -43.5117
   152,'VINCENT     ', 500.0000,1,  24,  24,   1,1.06986, -44.9342
   153,'VINCENT     ', 230.0000,1,  24,  24,   1,1.00186, -47.5751
   154,'CAMP WIL    ', 345.0000,1,  60,  65,   1,1.06619,  -3.9960
   155,'BENLOMND    ', 345.0000,1,  60,  65,   1,1.08193,  -4.4560
   156,'BENLOMND    ', 230.0000,1,  60,  65,   1,1.09107,  -4.9850
   157,'EMERY       ', 345.0000,1,  60,  65,   1,1.03370,   1.4457
   158,'EMERY       ',  20.0000,2,  60,  65,   1,1.02000,   6.3658
   159,'MONA        ', 345.0000,1,  60,  65,   1,1.06764,  -3.9309
   160,'NAUGHTON    ', 230.0000,1,  60,  63,   1,1.11056,  -1.0227
   161,'NAUGHT      ',  20.0000,2,  60,  63,   1,1.06159,   1.4578
   162,'PINTO PS    ', 345.0000,1,  60,  65,   1,1.13174,  -5.0145
   163,'PINTO       ', 345.0000,1,  60,  65,   1,1.15979,  -4.2942
   164,'SPAN FRK    ', 345.0000,1,  60,  65,   1,1.05148,  -3.2442
   165,'SIGURD      ', 345.0000,1,  60,  65,   1,1.05706,  -3.1921
   166,'TERMINAL    ', 345.0000,1,  60,  65,   1,1.06561,  -4.0625
   167,'MALIN3      ', 500.0000,1,  40,  40,   1,1.14854, -20.0220
   168,'MALIN4      ', 500.0000,1,  40,  40,   1,1.05292, -31.3454
   169,'MALIN5      ', 500.0000,1,  40,  40,   1,1.15295, -19.3278
   170,'MALIN6      ', 500.0000,1,  40,  40,   1,1.05425, -31.3808
   171,'MALIN7      ', 500.0000,1,  40,  40,   1,1.08195, -18.2698
   172,'MALIN8      ', 500.0000,1,  40,  40,   1,1.08798, -35.3767
   173,'MIDWAY1     ', 500.0000,1,  38,  38,   1,1.06034, -44.3117
   174,'MIDWAY2     ', 500.0000,1,  38,  38,   1,1.06032, -45.2659
   175,'MIDWAY3     ', 500.0000,1,  38,  38,   1,1.06012, -44.3070
   176,'MIDWAY4     ', 500.0000,1,  38,  38,   1,1.06043, -45.2673
   177,'MIDWAY5     ', 500.0000,1,  38,  38,   1,1.05999, -44.2975
   178,'MIDWAY6     ', 500.0000,1,  38,  38,   1,1.06293, -45.2441
   179,'BURNS2      ', 500.0000,1,  40,  40,   1,1.04218,  -8.2785
   180,'ADDBUS1     ',  20.0000,2,  40,  40,   1,1.00000, -17.1706
   181,'ADDBUS2     ',  20.0000,2,  39,  39,   1,1.10850, -36.3378
 0 /End of Bus data, Begin Load data
     1,'BL',1,  10,  10,  1750.000,   -56.000,     0.000,     0.000,     0.000,     0.000,   1,1
     3,'BL',1,  10,  10,   100.000,     0.000,     0.000,     0.000,     0.000,     0.000,   1,1
     4,'BL',1,  60,  70,  2350.000,  -127.000,     0.000,     0.000,     0.000,     0.000,   1,1
     5,'BL',1,  60,  70,   100.000,     0.000,     0.000,     0.000,     0.000,     0.000,   1,1
     7,'BL',1,  10,  10,   239.000,   -56.000,     0.000,     0.000,     0.000,     0.000,   1,1
     8,'BL',1,  10,  10,   100.000,     0.000,     0.000,     0.000,     0.000,     0.000,   1,1
     9,'BL',1,  10,  10,   139.700,    23.800,     0.000,     0.000,     0.000,     0.000,   1,1
    10,'BL',1,  10,  10,   100.000,     0.000,     0.000,     0.000,     0.000,     0.000,   1,1
    11,'BL',1,  10,  10,    90.000,    70.000,     0.000,     0.000,     0.000,     0.000,   1,1
    12,'BL',1,  10,  10,   100.000,     0.000,     0.000,     0.000,     0.000,     0.000,   1,1
    14,'BL',1,  10,  10,   100.000,     0.000,     0.000,     0.000,     0.000,     0.000,   1,1
    15,'BL',1,  10,  10,   793.400,   207.000,     0.000,     0.000,     0.000,     0.000,   1,1
    16,'BL',1,  10,  10,   840.000,     5.000,     0.000,     0.000,     0.000,     0.000,   1,1
    17,'BL',1,  10,  10,   100.000,     0.000,     0.000,     0.000,     0.000,     0.000,   1,1
    18,'BL',1,  10,  10,   617.000,   -69.000,     0.000,     0.000,     0.000,     0.000,   1,1
    29,'BL',1,  50,  50,   100.000,     0.000,     0.000,     0.000,     0.000,     0.000,   1,1
    30,'BL',1,  50,  50,  4400.000,  1000.000,     0.000,     0.000,     0.000,     0.000,   1,1
    33,'BL',1,  50,  50,  3600.000,   700.000,     0.000,     0.000,     0.000,     0.000,   1,1
    34,'BL',1,  50,  50,   100.000,     0.000,     0.000,     0.000,     0.000,     0.000,   1,1
    35,'BL',1,  60,  63,   100.000,     0.000,     0.000,     0.000,     0.000,     0.000,   1,1
    36,'BL',1,  90,  90,   62.000,   971.000,     0.000,     0.000,     0.000,     0.000,   1,1
    39,'BL',1,  26,  26,   100.000,     0.000,     0.000,     0.000,     0.000,     0.000,   1,1
    40,'BL',1,  26,  26,   135.000,    27.000,     0.000,     0.000,     0.000,     0.000,   1,1
    42,'BL',1,  26,  26,   100.000,     0.000,     0.000,     0.000,     0.000,     0.000,   1,1
    43,'BL',1,  90,  90,  2053.000,   907.100,     0.000,     0.000,     0.000,     0.000,   1,1
    44,'BL',1,  90,  90,   100.000,     0.000,     0.000,     0.000,     0.000,     0.000,   1,1
    45,'BL',1,  26,  26,   100.800,   -17.000,     0.000,     0.000,     0.000,     0.000,   1,1
    46,'BL',1,  26,  26,   100.000,     0.000,     0.000,     0.000,     0.000,     0.000,   1,1
    47,'BL',1,  26,  26,   121.000,    25.000,     0.000,     0.000,     0.000,     0.000,   1,1
    49,'BL',1,  26,  26,   320.000,    65.000,     0.000,     0.000,     0.000,     0.000,   1,1
    50,'BL',1,  26,  26,   237.200,   -63.200,     0.000,     0.000,     0.000,     0.000,   1,1
    53,'BL',1,  26,  26,   138.000,    28.000,     0.000,     0.000,     0.000,     0.000,   1,1
    54,'BL',1,  26,  26,   807.800,   132.100,     0.000,     0.000,     0.000,     0.000,   1,1
    56,'BL',1,  26,  26,   117.000,    24.000,     0.000,     0.000,     0.000,     0.000,   1,1
    57,'BL',1,  26,  26,   121.000,    25.000,     0.000,     0.000,     0.000,     0.000,   1,1
    58,'BL',1,  26,  26,   887.700,    -6.200,     0.000,     0.000,     0.000,     0.000,   1,1
    59,'BL',1,  90,  90,   71.000,  1654.000,     0.000,     0.000,     0.000,     0.000,   1,1
    60,'BL',1,  24,  24,   401.000,    80.600,     0.000,     0.000,     0.000,     0.000,   1,1
    61,'BL',1,  26,  26,   205.200,    17.600,     0.000,     0.000,     0.000,     0.000,   1,1
    62,'BL',1,  26,  26,  129.000,    32.200,     0.000,     0.000,     0.000,     0.000,   1,1
    64,'BL',1,  60,  62,   100.000,     0.000,     0.000,     0.000,     0.000,     0.000,   1,1
    65,'BL',1,  60,  62,  1700.000,   300.000,     0.000,     0.000,     0.000,     0.000,   1,1
    66,'BL',1,  40,  40,   160.000,    31.250,     0.000,     0.000,     0.000,     0.000,   1,1
    67,'BL',1,  40,  40,   67.500,   160.000,     0.000,     0.000,     0.000,     0.000,   1,1
    68,'BL',1,  40,  40,   44.200,    22.000,     0.000,     0.000,     0.000,     0.000,   1,1
    69,'BL',1,  40,  40,   100.000,     0.000,     0.000,     0.000,     0.000,     0.000,   1,1
    70,'BL',1,  90,  90,  3137.000,  1681.000,     0.000,     0.000,     0.000,     0.000,   1,1
    72,'BL',1,  60,  62,  50.000,   -50.000,     0.000,     0.000,     0.000,     0.000,   1,1
    74,'BL',1,  60,  62,  2584.000,   394.000,     0.000,     0.000,     0.000,     0.000,   1,1
    75,'BL',1,  40,  40,  3200.000,  1100.000,     0.000,     0.000,     0.000,     0.000,   1,1
    76,'BL',1,  40,  40,   100.000,     0.000,     0.000,     0.000,     0.000,     0.000,   1,1
    77,'BL',1,  40,  41,  3500.000,   500.000,     0.000,     0.000,     0.000,     0.000,   1,1
    78,'BL',1,  40,  42,   100.000,     0.000,     0.000,     0.000,     0.000,     0.000,   1,1
    79,'BL',1,  40,  42,  5000.000,   400.000,     0.000,     0.000,     0.000,     0.000,   1,1
    81,'BL',1,  40,  40,   66.600,   -97.000,     0.000,     0.000,     0.000,     0.000,   1,1
    82,'BL',1,  40,  40,   50.000,  -119.000,     0.000,     0.000,     0.000,     0.000,   1,1
    84,'BL',1,  61,  61,   610.000,  -414.000,     0.000,     0.000,     0.000,     0.000,   1,1
    99,'BL',1,  39,  39,   43.300,    20.000,     0.000,     0.000,     0.000,     0.000,   1,1
   100,'BL',1,  39,  39,   210.400,   -77.000,     0.000,     0.000,     0.000,     0.000,   1,1
   101,'BL',1,  38,  38,    50.000,    25.000,     0.000,     0.000,     0.000,     0.000,   1,1
   102,'BL',1,  38,  38,   100.000,     0.000,     0.000,     0.000,     0.000,     0.000,   1,1
   103,'BL',1,  38,  38,   305.000,    -7.600,     0.000,     0.000,     0.000,     0.000,   1,1
   104,'BL',1,  39,  39,    27.500,    -0.100,     0.000,     0.000,     0.000,     0.000,   1,1
   105,'BL',1,  39,  39,     8.010,     0.000,     0.000,     0.000,     0.000,     0.000,   1,1
   106,'BL',1,  39,  39,   265.000,    14.000,     0.000,     0.000,     0.000,     0.000,   1,1
   107,'BL',1,  38,  38,    55.600,  -329.000,     0.000,     0.000,     0.000,     0.000,   1,1
   108,'BL',1,  38,  38,   777.600,    32.600,     0.000,     0.000,     0.000,     0.000,   1,1
   109,'BL',1,  39,  39,    40.000,    21.500,     0.000,     0.000,     0.000,     0.000,   1,1
   110,'BL',1,  80,  80,  100.000,    61.500,     0.000,     0.000,     0.000,     0.000,   1,1
   111,'BL',1,  39,  39,   100.000,     0.000,     0.000,     0.000,     0.000,     0.000,   1,1
   112,'BL',1,  39,  39,   148.000,     0.000,     0.000,     0.000,     0.000,     0.000,   1,1
   114,'BL',1,  39,  39,    100.700,   118.500,     0.000,     0.000,     0.000,     0.000,   1,1
   115,'BL',1,  39,  39,   100.000,     0.000,     0.000,     0.000,     0.000,     0.000,   1,1
   116,'BL',1,  39,  39,   884.000,    54.800,     0.000,     0.000,     0.000,     0.000,   1,1
   117,'BL',1,  39,  39,   100.000,     0.000,     0.000,     0.000,     0.000,     0.000,   1,1
   118,'BL',1,  39,  39,  3161.000,  2491.000,     0.000,     0.000,     0.000,     0.000,   1,1
   135,'BL',1,  24,  24,   856.000,    19.600,     0.000,     0.000,     0.000,     0.000,   1,1
   136,'BL',1,  24,  24,   175.000,    18.000,     0.000,     0.000,     0.000,     0.000,   1,1
   137,'BL',1,  24,  29,   100.000,     0.000,     0.000,     0.000,     0.000,     0.000,   1,1
   138,'BL',1,  24,  29,   902.300,   -11.400,     0.000,     0.000,     0.000,     0.000,   1,1
   139,'BL',1,  24,  24,   100.000,     0.000,     0.000,     0.000,     0.000,     0.000,   1,1
   140,'BL',1,  24,  24,  2000.000,   630.000,     0.000,     0.000,     0.000,     0.000,   1,1
   141,'BL',1,  24,  24,   204.200,   -28.200,     0.000,     0.000,     0.000,     0.000,   1,1
   142,'BL',1,  24,  24,   377.400,    64.500,     0.000,     0.000,     0.000,     0.000,   1,1
   143,'BL',1,  24,  24,   100.000,     0.000,     0.000,     0.000,     0.000,     0.000,   1,1
   144,'BL',1,  24,  24,  2000.000,  1189.000,     0.000,     0.000,     0.000,     0.000,   1,1
   147,'BL',1,  24,  24,   100.000,     0.000,     0.000,     0.000,     0.000,     0.000,   1,1
   148,'BL',1,  24,  24,   100.000,     0.000,     0.000,     0.000,     0.000,     0.000,   1,1
   149,'BL',1,  24,  24,  2118.000,    78.000,     0.000,     0.000,     0.000,     0.000,   1,1
   150,'BL',1,  25,  25,  1230.000,    72.800,     0.000,     0.000,     0.000,     0.000,   1,1
   151,'BL',1,  24,  24,   406.000,    41.000,     0.000,     0.000,     0.000,     0.000,   1,1
   153,'BL',1,  24,  24,  1066.000,   -10.800,     0.000,     0.000,     0.000,     0.000,   1,1
   154,'BL',1,  60,  65,   457.700,    81.700,     0.000,     0.000,     0.000,     0.000,   1,1
   155,'BL',1,  60,  65,    33.900,    11.900,     0.000,     0.000,     0.000,     0.000,   1,1
   156,'BL',1,  60,  65,   148.000,    -7.900,     0.000,     0.000,     0.000,     0.000,   1,1
   157,'BL',1,  60,  65,   116.100,    38.400,     0.000,     0.000,     0.000,     0.000,   1,1
   158,'BL',1,  60,  65,   100.000,     0.000,     0.000,     0.000,     0.000,     0.000,   1,1
   159,'BL',1,  60,  65,   62.000,    12.800,     0.000,     0.000,     0.000,     0.000,   1,1
   160,'BL',1,  60,  63,   255.000,   100.000,     0.000,     0.000,     0.000,     0.000,   1,1
   161,'BL',1,  60,  63,   100.000,     0.000,     0.000,     0.000,     0.000,     0.000,   1,1
   163,'BL',1,  60,  65,    31.600,    11.500,     0.000,     0.000,     0.000,     0.000,   1,1
   164,'BL',1,  60,  65,   141.200,    71.400,     0.000,     0.000,     0.000,     0.000,   1,1
   165,'BL',1,  60,  65,   379.000,   -43.000,     0.000,     0.000,     0.000,     0.000,   1,1
   166,'BL',1,  60,  65,   185.000,    78.500,     0.000,     0.000,     0.000,     0.000,   1,1
 0 /End of Load data, Begin Fixed shunt data
     6,'1 ',1,     0.000,  -113.000
     7,'1 ',1,     0.000,  -155.000
    11,'1 ',1,     0.000,  -190.000
    13,'1 ',1,     0.000,  -391.000
    15,'1 ',1,     0.000,  -146.000
    16,'1 ',1,     0.000,   390.000
    18,'1 ',1,     0.000,  -427.000
    25,'1 ',1,     0.000,   100.000
    31,'1 ',1,     0.000,  -600.000
    32,'1 ',1,     0.000,   600.000
    36,'1 ',1,     0.000,   512.000
    40,'1 ',1,     0.000,   100.000
    43,'1 ',1,     0.000,   430.000
    48,'1 ',1,     0.000,   -80.000
    59,'1 ',1,     0.000,  2146.000
    62,'1 ',1,     0.000,  -108.000
    64,'1 ',1,     0.000,  1000.000
    65,'1 ',1,     0.000,  -200.000
    67,'1 ',1,     0.000,   100.000
    69,'1 ',1,     0.000,   500.000
    70,'1 ',1,     0.000,   100.000
    71,'1 ',1,     0.000,   100.000
    72,'1 ',1,     0.000,   100.000
    73,'1 ',1,     0.000,  -200.000
    74,'1 ',1,     0.000,   850.000
    75,'1 ',1,     0.000,  1200.000
    77,'1 ',1,     0.000,  1500.000
    79,'1 ',1,     0.000,   100.000
    80,'1 ',1,     0.000,  -220.000
    81,'1 ',1,     0.000,  -674.000
    82,'1 ',1,     0.000,   200.000
    83,'1 ',1,     0.000,  -220.000
    84,'1 ',1,     0.000,  -870.000
    99,'1 ',1,     0.000,  -100.000
   103,'1 ',1,     0.000,   -91.000
   104,'1 ',1,     0.000,  -150.000
   107,'1 ',1,     0.000,  -327.000
   108,'1 ',1,     0.000,  -600.000
   110,'1 ',1,     0.000,  -100.000
   111,'1 ',1,     0.000,  -625.000
   112,'1 ',1,     0.000,  -125.000
   113,'1 ',1,     0.000,   -91.000
   114,'1 ',1,     0.000,   -91.000
   115,'1 ',1,     0.000,   200.000
   116,'1 ',1,     0.000,  -232.000
   117,'1 ',1,     0.000,   500.000
   118,'1 ',1,     0.000,  4500.000
   122,'1 ',1,     0.000,  -700.000
   128,'1 ',1,     0.000,  -300.000
   130,'1 ',1,     0.000,  -500.000
   131,'1 ',1,     0.000,  -500.000
   133,'1 ',1,     0.000,  -900.000
   137,'1 ',1,     0.000,   -50.000
   138,'1 ',1,     0.000,  -319.000
   144,'1 ',1,     0.000,   400.000
   146,'1 ',1,     0.000,  200.000
   153,'1 ',1,     0.000,  200.000
   154,'1 ',1,     0.000,   -60.000
   157,'1 ',1,     0.000,  -220.000
   163,'1 ',1,     0.000,   200.000
   165,'1 ',1,     0.000,   -50.000
   171,'1 ',1,     0.000,   300.000
   172,'1 ',1,     0.000,   200.000
   179,'1 ',1,     0.000,  -220.000
 0 /End of Fixed shunt data, Begin Generator data
     3,'1 ',   800.000,  -132.081,   300.000,  -300.000,1.01148,     0,  1462.000, 0.00000E+0, 1.95000E-1, 0.00000E+0, 0.00000E+0,1.00000,1,  100.0,  1388.900,     0.000,   1,1.0000
     5,'1 ',  1048.000,    82.410,   400.000,  -400.000,1.01712,     0,  1488.000, 0.00000E+0, 1.90000E-1, 0.00000E+0, 0.00000E+0,1.00000,1,  100.0,  1413.600,     0.000,   1,1.0000
     8,'1 ',  2160.000,  -385.214,   700.000,  -500.000,1.01935,     0,  2458.000, 0.00000E+0, 2.05000E-1, 0.00000E+0, 0.00000E+0,1.00000,1,  100.0,  2335.100,     0.000,   1,1.0000
    10,'1 ',  2050.000,   196.266,   900.000,  -900.000,1.00000,     0,  3000.000, 0.00000E+0, 1.90000E-1, 0.00000E+0, 0.00000E+0,1.00000,1,  100.0,  2850.000,     0.000,   1,1.0000
    12,'1 ',  1690.000,   308.566,   700.000,  -280.000,1.08081,     0,  3540.000, 0.00000E+0, 1.75000E-1, 0.00000E+0, 0.00000E+0,1.00000,1,  100.0,  3363.000,     0.000,   1,1.0000
    14,'1 ',  2640.000,   496.378,  1300.000,  -900.000,1.03911,     0,  3117.000, 0.00000E+0, 2.85000E-1, 0.00000E+0, 0.00000E+0,1.00000,1,  100.0,  2961.150,     0.000,   1,1.0000
    17,'1 ',   962.000,  -118.863,  1300.000, -1300.000,1.01000,     0,  2054.000, 0.00000E+0, 2.05000E-1, 0.00000E+0, 0.00000E+0,1.00000,1,  100.0,  1951.300,     0.000,   1,1.0000
    29,'1 ',  4450.000,  1047.050,  4000.000, -4000.000,1.05527,     0, 10578.000, 0.00000E+0, 1.50000E-1, 0.00000E+0, 0.00000E+0,1.00000,1,  100.0, 10049.100,     0.000,   1,1.0000
    34,'1 ',  4480.000,  1017.424,  5320.000, -3500.000,1.02000,     0,  6698.039, 0.00000E+0, 2.50000E-1, 0.00000E+0, 0.00000E+0,1.00000,1,  100.0,  6363.138,     0.000,   1,1.0000
    35,'1 ',  1640.000,   239.308,   600.000,  -525.000,1.06125,     0,  2166.000, 0.00000E+0, 2.15000E-1, 0.00000E+0, 0.00000E+0,1.00000,1,  100.0,  2057.700,     0.000,   1,1.0000
    39,'1 ',   200.000,   -75.389,   268.000,  -134.000,1.02393,     0,   500.000, 0.00000E+0, 1.00000E-1, 0.00000E+0, 0.00000E+0,1.00000,1,  100.0,   475.000,     0.000,   1,1.0000
    42,'1 ',   325.000,    37.622,   300.000,  -220.000,1.00496,     0,   540.000, 0.00000E+0, 1.00000E-1, 0.00000E+0, 0.00000E+0,1.00000,1,  100.0,   513.000,     0.000,   1,1.0000
    44,'1 ',  1780.000,   520.026,   850.000,  -440.000,1.06068,     0,  1982.000, 0.00000E+0, 1.00000E-1, 0.00000E+0, 0.00000E+0,1.00000,1,  100.0,  1882.900,     0.000,   1,1.0000
    46,'1 ',   110.000,    15.109,   100.000,  -100.000,1.01546,     0,   113.000, 0.00000E+0, 1.00000E-1, 0.00000E+0, 0.00000E+0,1.00000,1,  100.0,   107.350,     0.000,   1,1.0000
    64,'1 ',  2910.000,  -165.250,  1500.340, -1000.000,1.08000,     0,  4830.000, 0.00000E+0, 2.30790E-1, 0.00000E+0, 0.00000E+0,1.00000,1,  100.0,  4588.500,     0.000,   1,1.0000
    69,'1 ',  1301.000,  -103.526,   692.000,  -711.000,1.03000,     0,  2822.000, 0.00000E+0, 4.78700E-1, 0.00000E+0, 0.00000E+0,1.00000,1,  100.0,  2680.900,     0.000,   1,1.0000
    76,'1 ',  5858.505,  1421.275,  2649.000, -1850.000,1.04512,     0, 10522.000, 0.00000E+0, 3.20240E-1, 0.00000E+0, 0.00000E+0,1.00000,1,  100.0,  9995.900,     0.000,   1,1.0000
    78,'1 ',  9860.000,  1894.893,  5780.000, -2000.000,1.06470,     0, 14469.000, 0.00000E+0, 1.61000E-1, 0.00000E+0, 0.00000E+0,1.00000,1,  100.0, 13745.551,     0.000,   1,1.0000
   102,'1 ',   765.000,   126.837,   330.000,  -310.000,1.05077,     0,  1685.000, 0.00000E+0, 3.11000E-1, 0.00000E+0, 0.00000E+0,1.00000,1,  100.0,  1600.750,     0.000,   1,1.0000
   111,'1 ',  1057.000,   847.608,  1500.000, -1000.000,1.07075,     0,  2000.000, 0.00000E+0, 5.14680E-1, 0.00000E+0, 0.00000E+0,1.00000,1,  100.0,  1900.000,     0.000,   1,1.0000
   115,'1 ',   594.000,    12.758,   300.000,  -300.000,1.01200,     0,   895.000, 0.00000E+0, 3.00000E-1, 0.00000E+0, 0.00000E+0,1.00000,1,  100.0,   850.250,     0.000,   1,1.0000
   117,'1 ',  3467.000,  1628.482,  2500.000, -1000.000,1.01200,     0,  7913.000, 0.00000E+0, 1.90000E-1, 0.00000E+0, 0.00000E+0,1.00000,1,  100.0,  7517.350,    65.700,   1,1.0000
   137,'1 ',   982.700,  -272.688,   300.000,  -300.000,1.02000,     0,  2104.000, 0.00000E+0, 3.00000E-1, 0.00000E+0, 0.00000E+0,1.00000,1,  100.0,  1998.800,     0.000,   1,1.0000
   139,'1 ',  3195.000,   989.543,  2000.000,  -900.000,1.00900,     0, 10871.000, 0.00000E+0, 1.00000E-1, 0.00000E+0, 0.00000E+0,1.00000,1,  100.0, 10327.450,     0.000,   1,1.0000
   143,'1 ',  1690.000,   -72.365,  1000.000, -1400.000,1.00900,     0,  3000.000, 0.00000E+0, 2.90000E-1, 0.00000E+0, 0.00000E+0,1.00000,1,  100.0,  2850.000,     0.000,   1,1.0000
   147,'1 ',  1680.000,   326.004,   700.000,  -300.000,1.05000,     0,  3393.600, 0.00000E+0, 2.05000E-1, 0.00000E+0, 0.00000E+0,1.00000,1,  100.0,  3223.920,     0.000,   1,1.0000
   148,'1 ',  2200.000,   328.141,   600.000,  -600.000,1.01000,     0,  2500.000, 0.00000E+0, 1.00000E-1, 0.00000E+0, 0.00000E+0,1.00000,1,  100.0,  2375.000,     0.000,   1,1.0000
   158,'1 ',  1665.000,  -494.460,   500.000,  -500.000,1.02000,     0,  2229.000, 0.00000E+0, 1.85000E-1, 0.00000E+0, 0.00000E+0,1.00000,1,  100.0,  2117.550,     0.000,   1,1.0000